
OS:Version,
  {a9057ddf-e7f3-4e85-87ef-8c5c045bdc82}, !- Handle
  3.1.0;                                  !- Version Identifier

OS:SimulationControl,
  {b60d5c2d-200b-4226-917f-ae16a337e44d}, !- Handle
  Yes,                                    !- Do Zone Sizing Calculation
  Yes,                                    !- Do System Sizing Calculation
  ,                                       !- Do Plant Sizing Calculation
  No,                                     !- Run Simulation for Sizing Periods
  Yes;                                    !- Run Simulation for Weather File Run Periods

OS:Timestep,
  {54ca46a4-0dd3-4369-b244-f87b00113aa6}, !- Handle
  6;                                      !- Number of Timesteps per Hour

OS:RunPeriod,
  {201e0490-5983-4154-b905-3e6cd94d1025}, !- Handle
  Run Period 1,                           !- Name
  1,                                      !- Begin Month
  1,                                      !- Begin Day of Month
  12,                                     !- End Month
  31,                                     !- End Day of Month
  No,                                     !- Use Weather File Holidays and Special Days
  No,                                     !- Use Weather File Daylight Saving Period
  No,                                     !- Apply Weekend Holiday Rule
  Yes,                                    !- Use Weather File Rain Indicators
  Yes,                                    !- Use Weather File Snow Indicators
  1;                                      !- Number of Times Runperiod to be Repeated

OS:SurfaceConvectionAlgorithm:Inside,
  {05279b71-4cc5-4089-8a85-4d755b48f193}, !- Handle
  TARP;                                   !- Algorithm

OS:SurfaceConvectionAlgorithm:Outside,
  {751d41c7-6973-4fd4-b32b-a1d0945f2506}, !- Handle
  DOE-2;                                  !- Algorithm

OS:HeatBalanceAlgorithm,
  {96761d38-a25d-442a-b6c3-67182f82540d}, !- Handle
  ConductionTransferFunction,             !- Algorithm
  200;                                    !- Surface Temperature Upper Limit {C}

OS:ZoneAirHeatBalanceAlgorithm,
  {c32adfb3-161d-4853-adbc-13a09f0b5bc7}, !- Handle
  ThirdOrderBackwardDifference;           !- Algorithm

OS:ConvergenceLimits,
  {01a89053-d0c4-4caf-a323-9ed998fef9d5}, !- Handle
  1;                                      !- Minimum System Timestep {minutes}

OS:ShadowCalculation,
  {2c59bec7-e7be-489b-8d3d-042e6bf6bda3}, !- Handle
  PolygonClipping,                        !- Shading Calculation Method
  ,                                       !- Shading Calculation Update Frequency Method
  7,                                      !- Shading Calculation Update Frequency
  15000,                                  !- Maximum Figures in Shadow Overlap Calculations
  ,                                       !- Polygon Clipping Algorithm
  512,                                    !- Pixel Counting Resolution
  ,                                       !- Sky Diffuse Modeling Algorithm
  No,                                     !- Output External Shading Calculation Results
  No,                                     !- Disable Self-Shading Within Shading Zone Groups
  No;                                     !- Disable Self-Shading From Shading Zone Groups to Other Zones

OS:Site,
  {48189540-a141-40f9-b7d9-306510af785f}, !- Handle
  Site 1,                                 !- Name
  41.77,                                  !- Latitude {deg}
  -87.75,                                 !- Longitude {deg}
  -6,                                     !- Time Zone {hr}
  190,                                    !- Elevation {m}
  ;                                       !- Terrain

OS:Site:GroundTemperature:BuildingSurface,
  {cb4df5e9-e032-45af-b8a2-9a9790219b68}, !- Handle
  19.527,                                 !- January Ground Temperature {C}
  19.502,                                 !- February Ground Temperature {C}
  19.536,                                 !- March Ground Temperature {C}
  19.598,                                 !- April Ground Temperature {C}
  20.002,                                 !- May Ground Temperature {C}
  21.64,                                  !- June Ground Temperature {C}
  22.225,                                 !- July Ground Temperature {C}
  22.375,                                 !- August Ground Temperature {C}
  21.449,                                 !- September Ground Temperature {C}
  20.121,                                 !- October Ground Temperature {C}
  19.802,                                 !- November Ground Temperature {C}
  19.633;                                 !- December Ground Temperature {C}

OS:Site:GroundTemperature:Deep,
  {f2926f80-a7ba-448b-9302-cc6fb91e1844}, !- Handle
  19.527,                                 !- January Deep Ground Temperature {C}
  19.502,                                 !- February Deep Ground Temperature {C}
  19.536,                                 !- March Deep Ground Temperature {C}
  19.598,                                 !- April Deep Ground Temperature {C}
  20.002,                                 !- May Deep Ground Temperature {C}
  21.64,                                  !- June Deep Ground Temperature {C}
  22.225,                                 !- July Deep Ground Temperature {C}
  22.375,                                 !- August Deep Ground Temperature {C}
  21.449,                                 !- September Deep Ground Temperature {C}
  20.121,                                 !- October Deep Ground Temperature {C}
  19.802,                                 !- November Deep Ground Temperature {C}
  19.633;                                 !- December Deep Ground Temperature {C}

OS:Site:WaterMainsTemperature,
  {4314049b-530d-492e-ad09-e889c0ccde96}, !- Handle
  Correlation,                            !- Calculation Method
  ,                                       !- Temperature Schedule Name
  9.69,                                   !- Annual Average Outdoor Air Temperature {C}
  28.1;                                   !- Maximum Difference In Monthly Average Outdoor Air Temperatures {deltaC}

OS:SizingPeriod:DesignDay,
  {ca82ad25-e27c-4572-ad97-22e63022f6dc}, !- Handle
  Sizing Period Design Day 1,             !- Name
  -20.6,                                  !- Maximum Dry-Bulb Temperature {C}
  0,                                      !- Daily Dry-Bulb Temperature Range {deltaC}
  -20.6,                                  !- Humidity Indicating Conditions at Maximum Dry-Bulb
  99063,                                  !- Barometric Pressure {Pa}
  4.9,                                    !- Wind Speed {m/s}
  270,                                    !- Wind Direction {deg}
  0,                                      !- Sky Clearness
  0,                                      !- Rain Indicator
  0,                                      !- Snow Indicator
  21,                                     !- Day of Month
  1,                                      !- Month
  WinterDesignDay,                        !- Day Type
  0,                                      !- Daylight Saving Time Indicator
  WetBulb,                                !- Humidity Indicating Type
  ,                                       !- Humidity Indicating Day Schedule Name
  DefaultMultipliers,                     !- Dry-Bulb Temperature Range Modifier Type
  ,                                       !- Dry-Bulb Temperature Range Modifier Schedule Name
  ASHRAEClearSky;                         !- Solar Model Indicator

OS:SizingPeriod:DesignDay,
  {86a9bc9f-e2aa-456f-98b3-048c8224736a}, !- Handle
  Sizing Period Design Day 2,             !- Name
  33.2,                                   !- Maximum Dry-Bulb Temperature {C}
  10.7,                                   !- Daily Dry-Bulb Temperature Range {deltaC}
  23.8,                                   !- Humidity Indicating Conditions at Maximum Dry-Bulb
  99063,                                  !- Barometric Pressure {Pa}
  5.3,                                    !- Wind Speed {m/s}
  230,                                    !- Wind Direction {deg}
  1,                                      !- Sky Clearness
  0,                                      !- Rain Indicator
  0,                                      !- Snow Indicator
  21,                                     !- Day of Month
  7,                                      !- Month
  SummerDesignDay,                        !- Day Type
  0,                                      !- Daylight Saving Time Indicator
  WetBulb,                                !- Humidity Indicating Type
  ,                                       !- Humidity Indicating Day Schedule Name
  DefaultMultipliers,                     !- Dry-Bulb Temperature Range Modifier Type
  ,                                       !- Dry-Bulb Temperature Range Modifier Schedule Name
  ASHRAEClearSky;                         !- Solar Model Indicator

OS:ScheduleTypeLimits,
  {c7cab5b9-76f9-4f3a-ad10-65cd00bf151f}, !- Handle
  Temperature,                            !- Name
  -60,                                    !- Lower Limit Value
  200,                                    !- Upper Limit Value
  CONTINUOUS,                             !- Numeric Type
  Temperature;                            !- Unit Type

OS:DefaultScheduleSet,
  {7e33db57-de7d-4779-ab37-8ad44197ebc5}, !- Handle
  Default Schedules,                      !- Name
  ,                                       !- Hours of Operation Schedule Name
  {295611fa-116f-4182-8a14-29b01a412d42}, !- Number of People Schedule Name
  {75017f3e-8084-4422-8a00-f51c0757df65}, !- People Activity Level Schedule Name
  {7c827c9b-36aa-42d9-bc6f-a0fba73d4550}, !- Lighting Schedule Name
  {9e4671c6-a87d-4588-ac40-0aacf342b5e1}, !- Electric Equipment Schedule Name
  {60ea7ae9-57f9-493d-9a25-5b5b6cb6091d}, !- Gas Equipment Schedule Name
  {9d65c4a5-311b-4b4f-83a2-0e08fabddaea}, !- Hot Water Equipment Schedule Name
  {ce79b492-6d95-44f6-8a57-5326663e8ace}, !- Infiltration Schedule Name
  ,                                       !- Steam Equipment Schedule Name
  ;                                       !- Other Equipment Schedule Name

OS:Schedule:Ruleset,
  {295611fa-116f-4182-8a14-29b01a412d42}, !- Handle
  Medium Office Number of People Schedule, !- Name
  {dfed7150-0c2e-4174-a895-62ca7e0294e5}, !- Schedule Type Limits Name
  {9eeaf6f4-2118-4f3d-971e-7c02e4ba95b4}, !- Default Day Schedule Name
  {17d75128-1380-476f-8155-532482c7d052}; !- Summer Design Day Schedule Name

OS:Schedule:Day,
  {9eeaf6f4-2118-4f3d-971e-7c02e4ba95b4}, !- Handle
  Medium Office Number of People All Other Days Schedule, !- Name
  {dfed7150-0c2e-4174-a895-62ca7e0294e5}, !- Schedule Type Limits Name
  ,                                       !- Interpolate to Timestep
  24,                                     !- Hour 1
  0,                                      !- Minute 1
  0;                                      !- Value Until Time 1

OS:Schedule:Day,
  {f7df55ff-0d52-4823-9f30-aebb4631f2a3}, !- Handle
  Medium Office Number of People Summer Design Day Schedule, !- Name
  ,                                       !- Schedule Type Limits Name
  ,                                       !- Interpolate to Timestep
  6,                                      !- Hour 1
  0,                                      !- Minute 1
  0,                                      !- Value Until Time 1
  22,                                     !- Hour 2
  0,                                      !- Minute 2
  1,                                      !- Value Until Time 2
  24,                                     !- Hour 3
  0,                                      !- Minute 3
  0.05;                                   !- Value Until Time 3

OS:Schedule:Day,
  {17d75128-1380-476f-8155-532482c7d052}, !- Handle
  Medium Office Number of People Summer Design Day Schedule 1, !- Name
  {dfed7150-0c2e-4174-a895-62ca7e0294e5}, !- Schedule Type Limits Name
  ,                                       !- Interpolate to Timestep
  6,                                      !- Hour 1
  0,                                      !- Minute 1
  0,                                      !- Value Until Time 1
  22,                                     !- Hour 2
  0,                                      !- Minute 2
  1,                                      !- Value Until Time 2
  24,                                     !- Hour 3
  0,                                      !- Minute 3
  0.05;                                   !- Value Until Time 3

OS:Schedule:Rule,
  {95596816-e0ca-4129-83ca-1a74f0edd174}, !- Handle
  Medium Office Number of People Schedule Weekdays Rule, !- Name
  {295611fa-116f-4182-8a14-29b01a412d42}, !- Schedule Ruleset Name
  1,                                      !- Rule Order
  {5c950df9-26e1-4563-aad7-a98058f814c0}, !- Day Schedule Name
  ,                                       !- Apply Sunday
  Yes,                                    !- Apply Monday
  Yes,                                    !- Apply Tuesday
  Yes,                                    !- Apply Wednesday
  Yes,                                    !- Apply Thursday
  Yes;                                    !- Apply Friday

OS:Schedule:Day,
  {5c950df9-26e1-4563-aad7-a98058f814c0}, !- Handle
  Medium Office Number of People Weekdays Schedule, !- Name
  {dfed7150-0c2e-4174-a895-62ca7e0294e5}, !- Schedule Type Limits Name
  ,                                       !- Interpolate to Timestep
  6,                                      !- Hour 1
  0,                                      !- Minute 1
  0,                                      !- Value Until Time 1
  7,                                      !- Hour 2
  0,                                      !- Minute 2
  0.1,                                    !- Value Until Time 2
  8,                                      !- Hour 3
  0,                                      !- Minute 3
  0.2,                                    !- Value Until Time 3
  12,                                     !- Hour 4
  0,                                      !- Minute 4
  0.95,                                   !- Value Until Time 4
  13,                                     !- Hour 5
  0,                                      !- Minute 5
  0.5,                                    !- Value Until Time 5
  17,                                     !- Hour 6
  0,                                      !- Minute 6
  0.95,                                   !- Value Until Time 6
  18,                                     !- Hour 7
  0,                                      !- Minute 7
  0.7,                                    !- Value Until Time 7
  20,                                     !- Hour 8
  0,                                      !- Minute 8
  0.4,                                    !- Value Until Time 8
  22,                                     !- Hour 9
  0,                                      !- Minute 9
  0.1,                                    !- Value Until Time 9
  24,                                     !- Hour 10
  0,                                      !- Minute 10
  0.05;                                   !- Value Until Time 10

OS:Schedule:Rule,
  {290c952d-f329-4529-99fe-c01824853427}, !- Handle
  Medium Office Number of People Schedule Saturday Rule, !- Name
  {295611fa-116f-4182-8a14-29b01a412d42}, !- Schedule Ruleset Name
  0,                                      !- Rule Order
  {15b57ade-0453-48be-936c-0ad0cd99b637}, !- Day Schedule Name
  ,                                       !- Apply Sunday
  ,                                       !- Apply Monday
  ,                                       !- Apply Tuesday
  ,                                       !- Apply Wednesday
  ,                                       !- Apply Thursday
  ,                                       !- Apply Friday
  Yes;                                    !- Apply Saturday

OS:Schedule:Day,
  {15b57ade-0453-48be-936c-0ad0cd99b637}, !- Handle
  Medium Office Number of People Saturday Schedule, !- Name
  {dfed7150-0c2e-4174-a895-62ca7e0294e5}, !- Schedule Type Limits Name
  ,                                       !- Interpolate to Timestep
  6,                                      !- Hour 1
  0,                                      !- Minute 1
  0,                                      !- Value Until Time 1
  8,                                      !- Hour 2
  0,                                      !- Minute 2
  0.1,                                    !- Value Until Time 2
  14,                                     !- Hour 3
  0,                                      !- Minute 3
  0.5,                                    !- Value Until Time 3
  17,                                     !- Hour 4
  0,                                      !- Minute 4
  0.1,                                    !- Value Until Time 4
  24,                                     !- Hour 5
  0,                                      !- Minute 5
  0;                                      !- Value Until Time 5

OS:ScheduleTypeLimits,
  {dfed7150-0c2e-4174-a895-62ca7e0294e5}, !- Handle
  Fractional,                             !- Name
  0,                                      !- Lower Limit Value
  1,                                      !- Upper Limit Value
  Continuous;                             !- Numeric Type

OS:Schedule:Ruleset,
  {75017f3e-8084-4422-8a00-f51c0757df65}, !- Handle
  Medium Office People Activity Level Schedule, !- Name
  {d52d468a-6e00-41f2-a312-1bfeef990e69}, !- Schedule Type Limits Name
  {252af297-7ca4-42a0-82c5-b768b51ddb28}; !- Default Day Schedule Name

OS:Schedule:Day,
  {252af297-7ca4-42a0-82c5-b768b51ddb28}, !- Handle
  Medium Office People Activity Level All Days Schedule, !- Name
  {d52d468a-6e00-41f2-a312-1bfeef990e69}, !- Schedule Type Limits Name
  ,                                       !- Interpolate to Timestep
  24,                                     !- Hour 1
  0,                                      !- Minute 1
  120;                                    !- Value Until Time 1

OS:ScheduleTypeLimits,
  {d52d468a-6e00-41f2-a312-1bfeef990e69}, !- Handle
  ActivityLevel,                          !- Name
  0,                                      !- Lower Limit Value
  ,                                       !- Upper Limit Value
  Continuous,                             !- Numeric Type
  ActivityLevel;                          !- Unit Type

OS:Schedule:Ruleset,
  {7c827c9b-36aa-42d9-bc6f-a0fba73d4550}, !- Handle
  Medium Office Lighting Schedule,        !- Name
  {dfed7150-0c2e-4174-a895-62ca7e0294e5}, !- Schedule Type Limits Name
  {6564f310-b337-4a5b-a910-73190cd3fe6e}, !- Default Day Schedule Name
  {8023b154-820f-4ace-af99-86ae7dc75460}, !- Summer Design Day Schedule Name
  {8b32c575-4488-4b0c-a9f9-8a65aa930a59}; !- Winter Design Day Schedule Name

OS:Schedule:Day,
  {6564f310-b337-4a5b-a910-73190cd3fe6e}, !- Handle
  Medium Office Lighting All Other Days Schedule, !- Name
  {dfed7150-0c2e-4174-a895-62ca7e0294e5}, !- Schedule Type Limits Name
  ,                                       !- Interpolate to Timestep
  24,                                     !- Hour 1
  0,                                      !- Minute 1
  0.05;                                   !- Value Until Time 1

OS:Schedule:Day,
  {9753dec0-78ea-45e1-bbdb-f599038f320f}, !- Handle
  Medium Office Lighting Summer Design Day Schedule, !- Name
  ,                                       !- Schedule Type Limits Name
  ,                                       !- Interpolate to Timestep
  6,                                      !- Hour 1
  0,                                      !- Minute 1
  1,                                      !- Value Until Time 1
  24,                                     !- Hour 2
  0,                                      !- Minute 2
  0;                                      !- Value Until Time 2

OS:Schedule:Day,
  {8023b154-820f-4ace-af99-86ae7dc75460}, !- Handle
  Medium Office Lighting Summer Design Day Schedule 1, !- Name
  {dfed7150-0c2e-4174-a895-62ca7e0294e5}, !- Schedule Type Limits Name
  ,                                       !- Interpolate to Timestep
  6,                                      !- Hour 1
  0,                                      !- Minute 1
  1,                                      !- Value Until Time 1
  24,                                     !- Hour 2
  0,                                      !- Minute 2
  0;                                      !- Value Until Time 2

OS:Schedule:Day,
  {7b61ca44-0466-4165-a792-3d937c500beb}, !- Handle
  Medium Office Lighting Winter Design Day Schedule, !- Name
  ,                                       !- Schedule Type Limits Name
  ,                                       !- Interpolate to Timestep
  24,                                     !- Hour 1
  0,                                      !- Minute 1
  0;                                      !- Value Until Time 1

OS:Schedule:Day,
  {8b32c575-4488-4b0c-a9f9-8a65aa930a59}, !- Handle
  Medium Office Lighting Winter Design Day Schedule 1, !- Name
  {dfed7150-0c2e-4174-a895-62ca7e0294e5}, !- Schedule Type Limits Name
  ,                                       !- Interpolate to Timestep
  24,                                     !- Hour 1
  0,                                      !- Minute 1
  0;                                      !- Value Until Time 1

OS:Schedule:Rule,
  {b2636b7c-9f2a-4d4a-8e20-b1995bbc0bd4}, !- Handle
  Medium Office Lighting Schedule Weekdays Rule, !- Name
  {7c827c9b-36aa-42d9-bc6f-a0fba73d4550}, !- Schedule Ruleset Name
  1,                                      !- Rule Order
  {e825f1f7-b9d3-4eac-b47c-693bafd863a9}, !- Day Schedule Name
  ,                                       !- Apply Sunday
  Yes,                                    !- Apply Monday
  Yes,                                    !- Apply Tuesday
  Yes,                                    !- Apply Wednesday
  Yes,                                    !- Apply Thursday
  Yes;                                    !- Apply Friday

OS:Schedule:Day,
  {e825f1f7-b9d3-4eac-b47c-693bafd863a9}, !- Handle
  Medium Office Lighting Weekdays Schedule, !- Name
  {dfed7150-0c2e-4174-a895-62ca7e0294e5}, !- Schedule Type Limits Name
  ,                                       !- Interpolate to Timestep
  5,                                      !- Hour 1
  0,                                      !- Minute 1
  0.05,                                   !- Value Until Time 1
  7,                                      !- Hour 2
  0,                                      !- Minute 2
  0.1,                                    !- Value Until Time 2
  8,                                      !- Hour 3
  0,                                      !- Minute 3
  0.3,                                    !- Value Until Time 3
  17,                                     !- Hour 4
  0,                                      !- Minute 4
  0.9,                                    !- Value Until Time 4
  18,                                     !- Hour 5
  0,                                      !- Minute 5
  0.7,                                    !- Value Until Time 5
  20,                                     !- Hour 6
  0,                                      !- Minute 6
  0.5,                                    !- Value Until Time 6
  22,                                     !- Hour 7
  0,                                      !- Minute 7
  0.3,                                    !- Value Until Time 7
  23,                                     !- Hour 8
  0,                                      !- Minute 8
  0.1,                                    !- Value Until Time 8
  24,                                     !- Hour 9
  0,                                      !- Minute 9
  0.05;                                   !- Value Until Time 9

OS:Schedule:Rule,
  {5792e3fc-42d6-46fd-810e-faad8ba830f5}, !- Handle
  Medium Office Lighting Schedule Saturday Rule, !- Name
  {7c827c9b-36aa-42d9-bc6f-a0fba73d4550}, !- Schedule Ruleset Name
  0,                                      !- Rule Order
  {9298432f-a63b-41a2-8eb4-6aa215440cf0}, !- Day Schedule Name
  ,                                       !- Apply Sunday
  ,                                       !- Apply Monday
  ,                                       !- Apply Tuesday
  ,                                       !- Apply Wednesday
  ,                                       !- Apply Thursday
  ,                                       !- Apply Friday
  Yes;                                    !- Apply Saturday

OS:Schedule:Day,
  {9298432f-a63b-41a2-8eb4-6aa215440cf0}, !- Handle
  Medium Office Lighting Saturday Schedule, !- Name
  {dfed7150-0c2e-4174-a895-62ca7e0294e5}, !- Schedule Type Limits Name
  ,                                       !- Interpolate to Timestep
  6,                                      !- Hour 1
  0,                                      !- Minute 1
  0.05,                                   !- Value Until Time 1
  8,                                      !- Hour 2
  0,                                      !- Minute 2
  0.1,                                    !- Value Until Time 2
  14,                                     !- Hour 3
  0,                                      !- Minute 3
  0.5,                                    !- Value Until Time 3
  17,                                     !- Hour 4
  0,                                      !- Minute 4
  0.15,                                   !- Value Until Time 4
  24,                                     !- Hour 5
  0,                                      !- Minute 5
  0.05;                                   !- Value Until Time 5

OS:Schedule:Ruleset,
  {9e4671c6-a87d-4588-ac40-0aacf342b5e1}, !- Handle
  Medium Office Electric Equipment Schedule, !- Name
  {dfed7150-0c2e-4174-a895-62ca7e0294e5}, !- Schedule Type Limits Name
  {bbb1635d-e6ae-4b86-91fe-b2108116ee7c}, !- Default Day Schedule Name
  {a0399f14-79f5-400e-8e74-fb75e3eee30c}, !- Summer Design Day Schedule Name
  {5baca4cc-dde1-4a13-818b-b0ba304bb9f6}; !- Winter Design Day Schedule Name

OS:Schedule:Day,
  {bbb1635d-e6ae-4b86-91fe-b2108116ee7c}, !- Handle
  Medium Office Electric Equipment All Other Days Schedule, !- Name
  {dfed7150-0c2e-4174-a895-62ca7e0294e5}, !- Schedule Type Limits Name
  ,                                       !- Interpolate to Timestep
  24,                                     !- Hour 1
  0,                                      !- Minute 1
  0.3;                                    !- Value Until Time 1

OS:Schedule:Day,
  {6cf01618-30cc-4a10-acec-6c6eda3cd0ae}, !- Handle
  Medium Office Electric Equipment Summer Design Day Schedule, !- Name
  ,                                       !- Schedule Type Limits Name
  ,                                       !- Interpolate to Timestep
  6,                                      !- Hour 1
  0,                                      !- Minute 1
  1,                                      !- Value Until Time 1
  24,                                     !- Hour 2
  0,                                      !- Minute 2
  0;                                      !- Value Until Time 2

OS:Schedule:Day,
  {a0399f14-79f5-400e-8e74-fb75e3eee30c}, !- Handle
  Medium Office Electric Equipment Summer Design Day Schedule 1, !- Name
  {dfed7150-0c2e-4174-a895-62ca7e0294e5}, !- Schedule Type Limits Name
  ,                                       !- Interpolate to Timestep
  6,                                      !- Hour 1
  0,                                      !- Minute 1
  1,                                      !- Value Until Time 1
  24,                                     !- Hour 2
  0,                                      !- Minute 2
  0;                                      !- Value Until Time 2

OS:Schedule:Day,
  {e2685418-d754-47ba-9dbb-7eba8727f69a}, !- Handle
  Medium Office Electric Equipment Winter Design Day Schedule, !- Name
  ,                                       !- Schedule Type Limits Name
  ,                                       !- Interpolate to Timestep
  24,                                     !- Hour 1
  0,                                      !- Minute 1
  0;                                      !- Value Until Time 1

OS:Schedule:Day,
  {5baca4cc-dde1-4a13-818b-b0ba304bb9f6}, !- Handle
  Medium Office Electric Equipment Winter Design Day Schedule 1, !- Name
  {dfed7150-0c2e-4174-a895-62ca7e0294e5}, !- Schedule Type Limits Name
  ,                                       !- Interpolate to Timestep
  24,                                     !- Hour 1
  0,                                      !- Minute 1
  0;                                      !- Value Until Time 1

OS:Schedule:Rule,
  {7055b271-c784-4494-bba8-d4a970c2fabe}, !- Handle
  Medium Office Electric Equipment Schedule Weekdays Rule, !- Name
  {9e4671c6-a87d-4588-ac40-0aacf342b5e1}, !- Schedule Ruleset Name
  1,                                      !- Rule Order
  {cc5a4fa0-41c9-4283-bae4-c4dbb393aae2}, !- Day Schedule Name
  ,                                       !- Apply Sunday
  Yes,                                    !- Apply Monday
  Yes,                                    !- Apply Tuesday
  Yes,                                    !- Apply Wednesday
  Yes,                                    !- Apply Thursday
  Yes;                                    !- Apply Friday

OS:Schedule:Day,
  {cc5a4fa0-41c9-4283-bae4-c4dbb393aae2}, !- Handle
  Medium Office Electric Equipment Weekdays Schedule, !- Name
  {dfed7150-0c2e-4174-a895-62ca7e0294e5}, !- Schedule Type Limits Name
  ,                                       !- Interpolate to Timestep
  8,                                      !- Hour 1
  0,                                      !- Minute 1
  0.4,                                    !- Value Until Time 1
  12,                                     !- Hour 2