
OS:Version,
  {d0ceb06e-5655-4cff-9fb5-6c0cf960c7c1}, !- Handle
  3.2.1;                                  !- Version Identifier

OS:Facility,
  {167ae7b7-972f-4d22-a2a6-0a28b33287f5}; !- Handle

OS:Site,
  {e6cb0e0b-767b-4776-bb57-93898eb39d51}, !- Handle
  Buffalo Niagara Intl Ap_NY_USA,         !- Name
  42.8170218879136,                       !- Latitude {deg}
  -78.8491529713029,                      !- Longitude {deg}
  -5,                                     !- Time Zone {hr}
  215,                                    !- Elevation {m}
  City;                                   !- Terrain

OS:SimulationControl,
  {45d881cb-4345-4abf-867d-f8dd5f0ec4d6}, !- Handle
  ,                                       !- Do Zone Sizing Calculation
  ,                                       !- Do System Sizing Calculation
  ,                                       !- Do Plant Sizing Calculation
  No,                                     !- Run Simulation for Sizing Periods
  Yes,                                    !- Run Simulation for Weather File Run Periods
  ,                                       !- Loads Convergence Tolerance Value {W}
  ,                                       !- Temperature Convergence Tolerance Value {deltaC}
  ,                                       !- Solar Distribution
  ,                                       !- Maximum Number of Warmup Days
  ,                                       !- Minimum Number of Warmup Days
  No,                                     !- Do HVAC Sizing Simulation for Sizing Periods
  1;                                      !- Maximum Number of HVAC Sizing Simulation Passes

OS:Sizing:Parameters,
  {f9aff415-5033-4fc9-8351-1ad7e54f8d7d}, !- Handle
  1.25,                                   !- Heating Sizing Factor
  1.15;                                   !- Cooling Sizing Factor

OS:Timestep,
  {3bc6057d-de6b-4c4c-a15c-a301b191446d}, !- Handle
  1;                                      !- Number of Timesteps per Hour

OS:ShadowCalculation,
  {7b668f7b-471e-44f0-b946-d30ed364d75c}, !- Handle
  PolygonClipping,                        !- Shading Calculation Method
  ,                                       !- Shading Calculation Update Frequency Method
  20,                                     !- Shading Calculation Update Frequency
  15000,                                  !- Maximum Figures in Shadow Overlap Calculations
  ,                                       !- Polygon Clipping Algorithm
  512,                                    !- Pixel Counting Resolution
  ,                                       !- Sky Diffuse Modeling Algorithm
  No,                                     !- Output External Shading Calculation Results
  No,                                     !- Disable Self-Shading Within Shading Zone Groups
  No;                                     !- Disable Self-Shading From Shading Zone Groups to Other Zones

OS:HeatBalanceAlgorithm,
  {5c6c0239-5cda-4d66-9800-c4109509ecd7}, !- Handle
  ConductionTransferFunction,             !- Algorithm
  200;                                    !- Surface Temperature Upper Limit {C}

OS:RunPeriod,
  {2e30b516-ead4-4261-9859-e7e856f96361}, !- Handle
  Run Period 1,                           !- Name
  1,                                      !- Begin Month
  1,                                      !- Begin Day of Month
  12,                                     !- End Month
  31,                                     !- End Day of Month
  ,                                       !- Use Weather File Holidays and Special Days
  ,                                       !- Use Weather File Daylight Saving Period
  ,                                       !- Apply Weekend Holiday Rule
  ,                                       !- Use Weather File Rain Indicators
  ,                                       !- Use Weather File Snow Indicators
  ;                                       !- Number of Times Runperiod to be Repeated

OS:LifeCycleCost:Parameters,
  {77ae3e60-de56-4697-8a47-c87ac6642205}, !- Handle
  ,                                       !- Analysis Type
  ,                                       !- Discounting Convention
  ,                                       !- Inflation Approach
  ,                                       !- Real Discount Rate
  ,                                       !- Nominal Discount Rate
  ,                                       !- Inflation
  ,                                       !- Base Date Month
  ,                                       !- Base Date Year
  ,                                       !- Service Date Month
  ,                                       !- Service Date Year
  ;                                       !- Length of Study Period in Years

OS:YearDescription,
  {916af993-405f-4c06-ace1-c16badb81bba}, !- Handle
  2017,                                   !- Calendar Year
  ,                                       !- Day of Week for Start Day
  ;                                       !- Is Leap Year

OS:WeatherFile,
  {392b413c-f201-478a-a7fa-cacc8725b171}, !- Handle
  Buffalo Niagara Intl Ap,                !- City
  NY,                                     !- State Province Region
  USA,                                    !- Country
  TMY3,                                   !- Data Source
  725280,                                 !- WMO Number
  42.93,                                  !- Latitude {deg}
  -78.73,                                 !- Longitude {deg}
  -5,                                     !- Time Zone {hr}
  215,                                    !- Elevation {m}
  files/USA_NY_Buffalo-Greater.Buffalo.Intl.AP.725280_TMY3.epw, !- Url
  6B50E0FF;                               !- Checksum

OS:Site:WaterMainsTemperature,
  {e11e2e70-2947-4773-b99b-7b315664ee3d}, !- Handle
  Correlation,                            !- Calculation Method
  ,                                       !- Temperature Schedule Name
  8.96666666666667,                       !- Annual Average Outdoor Air Temperature {C}
  26.2;                                   !- Maximum Difference In Monthly Average Outdoor Air Temperatures {deltaC}

OS:SizingPeriod:DesignDay,
  {a618c7ca-7089-4909-a844-b213715131a6}, !- Handle
  Buffalo Niagara Intl Ap Ann Clg .4% Condns DB=>MWB 1, !- Name
  30.3,                                   !- Maximum Dry-Bulb Temperature {C}
  9.3,                                    !- Daily Dry-Bulb Temperature Range {deltaC}
  21.8,                                   !- Humidity Indicating Conditions at Maximum Dry-Bulb
  98769,                                  !- Barometric Pressure {Pa}
  5.7,                                    !- Wind Speed {m/s}
  240,                                    !- Wind Direction {deg}
  0,                                      !- Sky Clearness
  0,                                      !- Rain Indicator
  0,                                      !- Snow Indicator
  21,                                     !- Day of Month
  7,                                      !- Month
  SummerDesignDay,                        !- Day Type
  0,                                      !- Daylight Saving Time Indicator
  Wetbulb,                                !- Humidity Indicating Type
  ,                                       !- Humidity Indicating Day Schedule Name
  DefaultMultipliers,                     !- Dry-Bulb Temperature Range Modifier Type
  ,                                       !- Dry-Bulb Temperature Range Modifier Schedule Name
  ASHRAETau,                              !- Solar Model Indicator
  ,                                       !- Beam Solar Day Schedule Name
  ,                                       !- Diffuse Solar Day Schedule Name
  0.462,                                  !- ASHRAE Taub {dimensionless}
  2.001;                                  !- ASHRAE Taud {dimensionless}

OS:SizingPeriod:DesignDay,
  {96262518-3394-42a2-b4a0-e7fc6947e523}, !- Handle
  Buffalo Niagara Intl Ap Ann Clg .4% Condns WB=>MDB 1, !- Name
  27.8,                                   !- Maximum Dry-Bulb Temperature {C}
  9.3,                                    !- Daily Dry-Bulb Temperature Range {deltaC}
  23.8,                                   !- Humidity Indicating Conditions at Maximum Dry-Bulb
  98769,                                  !- Barometric Pressure {Pa}
  5.7,                                    !- Wind Speed {m/s}
  240,                                    !- Wind Direction {deg}
  0,                                      !- Sky Clearness
  0,                                      !- Rain Indicator
  0,                                      !- Snow Indicator
  21,                                     !- Day of Month
  7,                                      !- Month
  SummerDesignDay,                        !- Day Type
  0,                                      !- Daylight Saving Time Indicator
  Wetbulb,                                !- Humidity Indicating Type
  ,                                       !- Humidity Indicating Day Schedule Name
  DefaultMultipliers,                     !- Dry-Bulb Temperature Range Modifier Type
  ,                                       !- Dry-Bulb Temperature Range Modifier Schedule Name
  ASHRAETau,                              !- Solar Model Indicator
  ,                                       !- Beam Solar Day Schedule Name
  ,                                       !- Diffuse Solar Day Schedule Name
  0.462,                                  !- ASHRAE Taub {dimensionless}
  2.001;                                  !- ASHRAE Taud {dimensionless}

OS:SizingPeriod:DesignDay,
  {66326cb4-085c-4394-9785-b607761b88a9}, !- Handle
  Buffalo Niagara Intl Ap Ann Htg 99.6% Condns DB 1, !- Name
  -16.3,                                  !- Maximum Dry-Bulb Temperature {C}
  0,                                      !- Daily Dry-Bulb Temperature Range {deltaC}
  -16.3,                                  !- Humidity Indicating Conditions at Maximum Dry-Bulb
  98769,                                  !- Barometric Pressure {Pa}
  5.1,                                    !- Wind Speed {m/s}
  270,                                    !- Wind Direction {deg}
  0,                                      !- Sky Clearness
  0,                                      !- Rain Indicator
  0,                                      !- Snow Indicator
  21,                                     !- Day of Month
  1,                                      !- Month
  WinterDesignDay,                        !- Day Type
  0,                                      !- Daylight Saving Time Indicator
  Wetbulb,                                !- Humidity Indicating Type
  ,                                       !- Humidity Indicating Day Schedule Name
  DefaultMultipliers,                     !- Dry-Bulb Temperature Range Modifier Type
  ,                                       !- Dry-Bulb Temperature Range Modifier Schedule Name
  ASHRAEClearSky;                         !- Solar Model Indicator

OS:ClimateZones,
  {9370afe9-a8c1-4055-894a-c186b199501c}, !- Handle
  ASHRAE,                                 !- Climate Zone Institution Name 1
  ANSI/ASHRAE Standard 169,               !- Climate Zone Document Name 1
  2006,                                   !- Climate Zone Document Year 1
  6A,                                     !- Climate Zone Value 1
  CEC,                                    !- Climate Zone Institution Name 2
  California Climate Zone Descriptions,   !- Climate Zone Document Name 2
  1995,                                   !- Climate Zone Document Year 2
  ;                                       !- Climate Zone Value 2

OS:Rendering:Color,
  {bf401b8f-ac32-4c95-bcfb-c4582900c73c}, !- Handle
  StripMall Strip mall - type 2,          !- Name
  171,                                    !- Rendering Red Value
  222,                                    !- Rendering Green Value
  78;                                     !- Rendering Blue Value

OS:Rendering:Color,
  {b1bf203a-fca2-48cd-9b19-8e213452d899}, !- Handle
  StripMall Strip mall - type 1,          !- Name
  171,                                    !- Rendering Red Value
  222,                                    !- Rendering Green Value
  78;                                     !- Rendering Blue Value

OS:Rendering:Color,
  {59d94e2c-5eda-419c-b11c-ea1962577b67}, !- Handle
  StripMall Strip mall - type 3,          !- Name
  171,                                    !- Rendering Red Value
  222,                                    !- Rendering Green Value
  78;                                     !- Rendering Blue Value

OS:RunPeriodControl:DaylightSavingTime,
  {c6ab08d6-492c-4be4-adf6-ab61a7a06a26}, !- Handle
  2nd Sunday in March,                    !- Start Date
  1st Sunday in November;                 !- End Date

OS:People:Definition,
  {7c7f4111-a8bc-4395-ba9f-bc5f3381cc3e}, !- Handle
  StripMall Strip mall - type 1 People Definition, !- Name
  People/Area,                            !- Number of People Calculation Method
  ,                                       !- Number of People {people}
  0.0861112833336778,                     !- People per Space Floor Area {person/m2}
  ,                                       !- Space Floor Area per Person {m2/person}
  0.3,                                    !- Fraction Radiant
  ,                                       !- Sensible Heat Fraction
  ,                                       !- Carbon Dioxide Generation Rate {m3/s-W}
  Yes,                                    !- Enable ASHRAE 55 Comfort Warnings
  ZoneAveraged,                           !- Mean Radiant Temperature Calculation Type
  Fanger;                                 !- Thermal Comfort Model Type 1

OS:Schedule:Ruleset,
  {c2a1abfe-3cdc-4679-b76a-bc7a6357db6c}, !- Handle
  Clothing Schedule,                      !- Name
  {50f51f01-2fa1-4e8e-a183-ce39fd91f80b}, !- Schedule Type Limits Name
  {3082c36f-aa00-470a-9ded-41fcca1b5187}; !- Default Day Schedule Name

OS:Schedule:Day,
  {3082c36f-aa00-470a-9ded-41fcca1b5187}, !- Handle
  Clothing Schedule Default Winter Clothes, !- Name
  {50f51f01-2fa1-4e8e-a183-ce39fd91f80b}, !- Schedule Type Limits Name
  ,                                       !- Interpolate to Timestep
  24,                                     !- Hour 1
  0,                                      !- Minute 1
  1;                                      !- Value Until Time 1

OS:Schedule:Rule,
  {5dce5b64-5926-46a9-9e4d-715cf1b8d96f}, !- Handle
  Schedule Rule 1,                        !- Name
  {c2a1abfe-3cdc-4679-b76a-bc7a6357db6c}, !- Schedule Ruleset Name
  0,                                      !- Rule Order
  {42f22876-0cb2-4a6a-92c3-5ca623adf700}, !- Day Schedule Name
  ,                                       !- Apply Sunday
  ,                                       !- Apply Monday
  ,                                       !- Apply Tuesday
  ,                                       !- Apply Wednesday
  ,                                       !- Apply Thursday
  ,                                       !- Apply Friday
  ,                                       !- Apply Saturday
  DateRange,                              !- Date Specification Type
  5,                                      !- Start Month
  1,                                      !- Start Day
  9,                                      !- End Month
  30;                                     !- End Day

OS:Schedule:Day,
  {42f22876-0cb2-4a6a-92c3-5ca623adf700}, !- Handle
  Clothing Schedule Summer Clothes,       !- Name
  {50f51f01-2fa1-4e8e-a183-ce39fd91f80b}, !- Schedule Type Limits Name
  ,                                       !- Interpolate to Timestep
  24,                                     !- Hour 1
  0,                                      !- Minute 1
  0.5;                                    !- Value Until Time 1

OS:ScheduleTypeLimits,
  {50f51f01-2fa1-4e8e-a183-ce39fd91f80b}, !- Handle
  ClothingInsulation,                     !- Name
  0,                                      !- Lower Limit Value
  ,                                       !- Upper Limit Value
  Continuous,                             !- Numeric Type
  ClothingInsulation;                     !- Unit Type

OS:Schedule:Ruleset,
  {6ad8a16b-0375-4c32-870c-5d24a609931e}, !- Handle
  Air Velocity Schedule,                  !- Name
  {fcb4b957-fff1-4b11-8154-50d70b02f128}, !- Schedule Type Limits Name
  {9ebc86d3-edde-4740-9900-fb7d089b66fb}; !- Default Day Schedule Name

OS:Schedule:Day,
  {9ebc86d3-edde-4740-9900-fb7d089b66fb}, !- Handle
  Air Velocity Schedule Default,          !- Name
  {fcb4b957-fff1-4b11-8154-50d70b02f128}, !- Schedule Type Limits Name
  ,                                       !- Interpolate to Timestep
  24,                                     !- Hour 1
  0,                                      !- Minute 1
  0.2;                                    !- Value Until Time 1

OS:ScheduleTypeLimits,
  {fcb4b957-fff1-4b11-8154-50d70b02f128}, !- Handle
  Velocity,                               !- Name
  0,                                      !- Lower Limit Value
  ,                                       !- Upper Limit Value
  Continuous,                             !- Numeric Type
  Velocity;                               !- Unit Type

OS:Schedule:Ruleset,
  {034eb711-160f-4233-9da0-ca48ef3ad9ac}, !- Handle
  Work Efficiency Schedule,               !- Name
  {2da98ca4-9ff8-40f7-acdf-ee746d3d7580}, !- Schedule Type Limits Name
  {e596d72a-8e77-4c3a-958f-f1f3e5ec6bf7}; !- Default Day Schedule Name

OS:Schedule:Day,
  {e596d72a-8e77-4c3a-958f-f1f3e5ec6bf7}, !- Handle
  Work Efficiency Schedule Default,       !- Name
  {2da98ca4-9ff8-40f7-acdf-ee746d3d7580}, !- Schedule Type Limits Name
  ,                                       !- Interpolate to Timestep
  24,                                     !- Hour 1
  0,                                      !- Minute 1
  0;                                      !- Value Until Time 1

OS:ScheduleTypeLimits,
  {2da98ca4-9ff8-40f7-acdf-ee746d3d7580}, !- Handle
  Fractional,                             !- Name
  0,                                      !- Lower Limit Value
  1,                                      !- Upper Limit Value
  Continuous;                             !- Numeric Type

OS:Lights:Definition,
  {e54e6a80-9138-4923-981d-4f42ebb8807f}, !- Handle
  StripMall Strip mall - type 1 Lights Definition, !- Name
  Watts/Area,                             !- Design Level Calculation Method
  ,                                       !- Lighting Level {W}
  13.5625271250542,                       !- Watts per Space Floor Area {W/m2}
  ,                                       !- Watts per Person {W/person}
  0.7,                                    !- Fraction Radiant
  0.2,                                    !- Fraction Visible
  0;                                      !- Return Air Fraction

OS:AdditionalProperties,
  {3c60737f-c1eb-4315-bc43-a2263a8dcd4f}, !- Handle
  {e54e6a80-9138-4923-981d-4f42ebb8807f}, !- Object Name
  lpd_fraction_linear_fluorescent,        !- Feature Name 1
  Double,                                 !- Feature Data Type 1
  1;                                      !- Feature Value 1

OS:Lights:Definition,
  {90397cd7-d50f-4f5d-850c-a382c5e45e68}, !- Handle
  StripMall Strip mall - type 1 Additional Lights Definition, !- Name
  Watts/Area,                             !- Design Level Calculation Method
  ,                                       !- Lighting Level {W}
  7.53473729169681,                       !- Watts per Space Floor Area {W/m2}
  ,                                       !- Watts per Person {W/person}
  0.7,                                    !- Fraction Radiant
  0.2,                                    !- Fraction Visible
  0;                                      !- Return Air Fraction

OS:AdditionalProperties,
  {e2e21973-2635-470c-aead-6a47e71d5a44}, !- Handle
  {90397cd7-d50f-4f5d-850c-a382c5e45e68}, !- Object Name
  lpd_fraction_linear_fluorescent,        !- Feature Name 1
  Double,                                 !- Feature Data Type 1
  0,                                      !- Feature Value 1
  lpd_fraction_compact_fluorescent,       !- Feature Name 2
  Double,                                 !- Feature Data Type 2
  0,                                      !- Feature Value 2
  lpd_fraction_high_bay,                  !- Feature Name 3
  Double,                                 !- Feature Data Type 3
  0,                                      !- Feature Value 3
  lpd_fraction_specialty_lighting,        !- Feature Name 4
  Double,                                 !- Feature Data Type 4
  1,                                      !- Feature Value 4
  lpd_fraction_exit_lighting,             !- Feature Name 5
  Double,                                 !- Feature Data Type 5
  0;                                      !- Feature Value 5

OS:ElectricEquipment:Definition,
  {93787ff9-fe4c-44f7-a417-575b593d88d8}, !- Handle
  StripMall Strip mall - type 1 Elec Equip Definition, !- Name
  Watts/Area,                             !- Design Level Calculation Method
  ,                                       !- Design Level {W}
  4.30556416668389,                       !- Watts per Space Floor Area {W/m2}
  ,                                       !- Watts per Person {W/person}
  0,                                      !- Fraction Latent
  0.5,                                    !- Fraction Radiant
  0;                                      !- Fraction Lost

OS:DesignSpecification:OutdoorAir,
  {bb9615dc-54d1-413e-af51-d68e95060b37}, !- Handle
  StripMall Strip mall - type 1 Ventilation, !- Name
  Sum,                                    !- Outdoor Air Method
  ,                                       !- Outdoor Air Flow per Person {m3/s-person}
  0.0011811,                              !- Outdoor Air Flow per Floor Area {m3/s-m2}
  ,                                       !- Outdoor Air Flow Rate {m3/s}
  ,                                       !- Outdoor Air Flow Air Changes per Hour {1/hr}
  ;                                       !- Outdoor Air Flow Rate Fraction Schedule Name

OS:DefaultScheduleSet,
  {f6a63889-79c7-4ccf-a22e-e5e2ca5f5e78}, !- Handle
  StripMall Strip mall - type 1 Schedule Set, !- Name
  ,                                       !- Hours of Operation Schedule Name
  {485f66d6-85f0-410a-a84a-a484fcee178c}, !- Number of People Schedule Name
  {e241f3f7-aa0a-4acd-bdfa-e3f1dd68d53e}, !- People Activity Level Schedule Name
  {57d3f5b0-ac58-4fe9-91ea-2a2868cb3577}, !- Lighting Schedule Name
  {01d0803c-3d0c-48f7-afa2-fced508d1c7a}, !- Electric Equipment Schedule Name
  ,                                       !- Gas Equipment Schedule Name
  ,                                       !- Hot Water Equipment Schedule Name
  {6d28478a-d755-46ab-aa35-2370c5c5dc42}, !- Infiltration Schedule Name
  ,                                       !- Steam Equipment Schedule Name
  ;                                       !- Other Equipment Schedule Name

OS:Schedule:Ruleset,
  {485f66d6-85f0-410a-a84a-a484fcee178c}, !- Handle
  RetailStripmall Type1_OCC_SCH,          !- Name
  {2da98ca4-9ff8-40f7-acdf-ee746d3d7580}, !- Schedule Type Limits Name
  {69508cd7-a321-46fc-918d-4376730a25e6}, !- Default Day Schedule Name
  {77753ca3-da3c-4568-9918-bad0dc2eba54}, !- Summer Design Day Schedule Name
  {e24e245d-3f25-4613-af21-8aec3b3db62f}; !- Winter Design Day Schedule Name

OS:Schedule:Day,
  {69508cd7-a321-46fc-918d-4376730a25e6}, !- Handle
  RetailStripmall Type1_OCC_SCH Default,  !- Name
  {2da98ca4-9ff8-40f7-acdf-ee746d3d7580}, !- Schedule Type Limits Name
  ,                                       !- Interpolate to Timestep
  8,                                      !- Hour 1
  0,                                      !- Minute 1
  0,                                      !- Value Until Time 1
  10,                                     !- Hour 2
  0,                                      !- Minute 2
  0.05,                                   !- Value Until Time 2
  11,                                     !- Hour 3
  0,                                      !- Minute 3
  0.1,                                    !- Value Until Time 3
  12,                                     !- Hour 4
  0,                                      !- Minute 4
  0.2,                                    !- Value Until Time 4
  13,                                     !- Hour 5
  0,                                      !- Minute 5
  0.4,                                    !- Value Until Time 5
  14,                                     !- Hour 6
  0,                                      !- Minute 6
  0.6,                                    !- Value Until Time 6
  16,                                     !- Hour 7
  0,                                      !- Minute 7
  0.4,                                    !- Value Until Time 7
  17,                                     !- Hour 8
  0,                                      !- Minute 8
  0.3,                                    !- Value Until Time 8
  19,                                     !- Hour 9
  0,                                      !- Minute 9
  0.6,                                    !- Value Until Time 9
  21,                                     !- Hour 10
  0,                                      !- Minute 10
  0.4,                                    !- Value Until Time 10
  22,                                     !- Hour 11
  0,                                      !- Minute 11
  0.3,                                    !- Value Until Time 11
  23,                                     !- Hour 12
  0,                                      !- Minute 12
  0.2,                                    !- Value Until Time 12
  24,                                     !- Hour 13
  0,                                      !- Minute 13
  0.05;                                   !- Value Until Time 13

OS:Schedule:Rule,
  {31e35f91-d844-46aa-afaf-2b765321a2f3}, !- Handle
  Schedule Rule 2,                        !- Name
  {485f66d6-85f0-410a-a84a-a484fcee178c}, !- Schedule Ruleset Name
  1,                                      !- Rule Order
  {7916bea3-3185-4f2e-a1d6-d81ff840fb76}, !- Day Schedule Name
  ,                                       !- Apply Sunday
  Yes,                                    !- Apply Monday
  Yes,                                    !- Apply Tuesday
  Yes,                                    !- Apply Wednesday
  Yes,                                    !- Apply Thursday
  ,                                       !- Apply Friday
  ,                                       !- Apply Saturday
  DateRange,                              !- Date Specification Type
  1,                                      !- Start Month
  1,                                      !- Start Day
  12,                                     !- End Month
  31;                                     !- End Day

OS:Schedule:Day,
  {7916bea3-3185-4f2e-a1d6-d81ff840fb76}, !- Handle
  RetailStripmall Type1_OCC_SCH Mon|Tue|Wed|Thu Day, !- Name
  {2da98ca4-9ff8-40f7-acdf-ee746d3d7580}, !- Schedule Type Limits Name
  ,                                       !- Interpolate to Timestep
  8,                                      !- Hour 1
  0,                                      !- Minute 1
  0,                                      !- Value Until Time 1
  10,                                     !- Hour 2
  0,                                      !- Minute 2
  0.05,                                   !- Value Until Time 2
  12,                                     !- Hour 3
  0,                                      !- Minute 3
  0.1,                                    !- Value Until Time 3
  13,                                     !- Hour 4
  0,                                      !- Minute 4
  0.2,                                    !- Value Until Time 4
  15,                                     !- Hour 5
  0,                                      !- Minute 5
  0.4,                                    !- Value Until Time 5
  17,                                     !- Hour 6
  0,                                      !- Minute 6
  0.25,                                   !- Value Until Time 6
  20,                                     !- Hour 7
  0,                                      !- Minute 7
  0.5,                                    !- Value Until Time 7
  23,                                     !- Hour 8
  0,                                      !- Minute 8
  0.3,                                    !- Value Until Time 8
  24,                                     !- Hour 9
  0,                                      !- Minute 9
  0.05;                                   !- Value Until Time 9

OS:Schedule:Rule,
  {84a1070a-189a-4576-bee7-a05ee592a070}, !- Handle
  Schedule Rule 3,                        !- Name
  {485f66d6-85f0-410a-a84a-a484fcee178c}, !- Schedule Ruleset Name
  0,                                      !- Rule Order
  {d9967659-c74f-4feb-a0a4-1008881b844b}, !- Day Schedule Name
  ,                                       !- Apply Sunday
  ,                                       !- Apply Monday
  ,                                       !- Apply Tuesday
  ,                                       !- Apply Wednesday
  ,                                       !- Apply Thursday
  Yes,                                    !- Apply Friday
  Yes,                                    !- Apply Saturday
  DateRange,                              !- Date Specification Type
  1,                                      !- Start Month
  1,                                      !- Start Day
  12,                                     !- End Month
  31;                                     !- End Day

OS:Schedule:Day,
  {d9967659-c74f-4feb-a0a4-1008881b844b}, !- Handle
  RetailStripmall Type1_OCC_SCH Sat|Fri Day, !- Name
  {2da98ca4-9ff8-40f7-acdf-ee746d3d7580}, !- Schedule Type Limits Name